/*--------------------------------*- C++ -*----------------------------------*\
  =========                 |
  \\      /  F ield         | OpenFOAM: The Open Source CFD Toolbox
   \\    /   O peration     | Website:  https://openfoam.org
    \\  /    A nd           | Version:  7
     \\/     M anipulation  |
\*---------------------------------------------------------------------------*/
FoamFile
{
    version     2.0;
    format      ascii;
    class       dictionary;
    object      blockMeshDict;
}
// * * * * * * * * * * * * * * * * * * * * * * * * * * * * * * * * * * * * * //

convertToMeters 1;

vertices
(
    (0 0 -0.05)        // Vertex 0
    (0.6 0 -0.05)      // Vertex 1
    (0 0.2 -0.05)      // Vertex 2
    (0.6 0.2 -0.05)    // Vertex 3, start of ramp
    (3 0.2 0.05)       // Vertex 4, end of ramp
    (0 1 -0.05)        // Vertex 5
    (0.6 1 -0.05)      // Vertex 6
    (3 1 0.05)         // Vertex 7
    (0 0 0.05)         // Vertex 8
    (0.6 0 0.05)       // Vertex 9
    (0 0.2 0.05)       // Vertex 10
    (0.6 0.2 0.05)     // Vertex 11, start of ramp upper side
    (3 0.2 0.15)       // Vertex 12, end of ramp upper side
    (0 1 0.05)         // Vertex 13
    (0.6 1 0.05)       // Vertex 14
    (3 1 0.15)         // Vertex 15
);


blocks
(
    hex (0 1 3 2 8 9 11 10)   (24 8 1) simpleGrading (1 1 1)
    hex (2 3 6 5 10 11 14 13) (24 32 1) simpleGrading (1 1 1)
    hex (3 4 7 6 11 12 15 14) (96 32 1) simpleGrading (1 1 1)

);

edges
(
);

boundary
(
    inlet
    {
        type patch;
        faces
        (
            (0 8 10 2)
            (2 10 13 5)
        );
    }
    outlet
    {
        type patch;
        faces
        (
            (4 7 15 12)
        );
    }
    bottom
    {
        type symmetryPlane;
        faces
        (
            (0 1 9 8)
            (1 2 10 9)
        );
    }
    top
    {
        type symmetryPlane;
        faces
        (
            (5 13 14 6)
            (6 14 15 7)
        );
    }
    obstacle
    {
        type patch;
        faces
        (
            (1 3 11 9)
            (3 4 12 11)
        );
    }
);

mergePatchPairs
(
);

// ************************************************************************* //
