/*--------------------------------*- C++ -*----------------------------------*\
 =========                 |                                                  
 \      /  F ield         | OpenFOAM: The Open Source CFD Toolbox            
  \    /   O peration     | Website:  https://openfoam.org                   
   \  /    A nd           |  Version:  7                                     
    \/     M anipulation  |                                                  
\*---------------------------------------------------------------------------*/
FoamFile
{
    version     2.0;
    format      ascii;
    class       dictionary;
    object      blockMeshDict;
}
// * * * * * * * * * * * * * * * * * * * * * * * * * * * * * * * * * * * * * //

convertToMeters 1; 
vertices
(
    (0.000000 0.000000 -0.050000)
    (0.600000 0.000000 -0.050000)
    (1.000000 0.070531 -0.050000)
    (0.000000 1.000000 -0.050000)
    (0.600000 1.000000 -0.050000)
    (1.000000 1.000000 -0.050000)
    (3.000000 0.070531 -0.050000)
    (3.000000 1.000000 -0.050000)
    (0.000000 0.000000 0.050000)
    (0.600000 0.000000 0.050000)
    (1.000000 0.070531 0.050000)
    (0.000000 1.000000 0.050000)
    (0.600000 1.000000 0.050000)
    (1.000000 1.000000 0.050000)
    (3.000000 0.070531 0.050000)
    (3.000000 1.000000 0.050000)
);

blocks
(
    hex (0 1 4 3 8 9 12 11)   (40 40 1) simpleGrading (1 1 1)
    hex (1 2 5 4 9 10 13 12) (80 40 1) simpleGrading (1 1 1)
    hex (2 6 7 5 10 14 15 13) (80 40 1) simpleGrading (1 1 1)
);

edges
(
);

boundary
(
    inlet
    {
        type patch;
        faces
        (
            (0 6 9 3)
        );
    }
    outlet
    {
        type patch;
        faces
        (
            (2 5 11 8)
        );
    }
    bottom
    {
        type symmetryPlane;
        faces
        (
            (0 1 7 6)
        );
    }
    top
    {
        type symmetryPlane;
        faces
        (
            (3 9 10 4)
            (4 10 11 5)
        );
    }
    obstacle
    {
        type patch;
        faces
        (
            (1 2 8 7)
        );
    }
);

mergePatchPairs
(
);

// ************************************************************************* //
